MODEL 1
REMARK VINA RESULT:    19.347      0.000      0.000
REMARK INTER + INTRA:          21.408
REMARK INTER:                  21.461
REMARK INTRA:                  -0.053
REMARK UNBOUND:                 0.364
REMARK  2 active torsions:
REMARK  status: ('A' for Active; 'I' for Inactive)
REMARK    1  A    between atoms: O_1  and  C_3 
REMARK    2  A    between atoms: O_2  and  C_4 
ROOT
HETATM    1  O   UNK     0       8.867  45.426  12.721  0.00  0.00    -0.353 OA
HETATM    2  C   UNK     0       7.938  45.940  13.536  0.00  0.00     0.210 C 
ENDROOT
BRANCH   1   3
HETATM    3  C   UNK     0       8.896  45.548  11.459  0.00  0.00     0.101 A 
HETATM    4  C   UNK     0       9.791  46.444  10.830  0.00  0.00     0.099 A 
HETATM    5  C   UNK     0       9.744  46.618   9.431  0.00  0.00     0.039 A 
HETATM    6  C   UNK     0       8.824  45.887   8.658  0.00  0.00     0.003 A 
HETATM    7  C   UNK     0       7.963  44.962   9.277  0.00  0.00     0.003 A 
HETATM    8  C   UNK     0       8.004  44.788  10.672  0.00  0.00     0.039 A 
BRANCH   4   9
HETATM    9  O   UNK     0      10.627  47.093  11.512  0.00  0.00    -0.358 OA
HETATM   10  H   UNK     0      10.576  47.116  12.391  0.00  0.00     0.217 HD
ENDBRANCH   4   9
ENDBRANCH   1   3
TORSDOF 2
ENDMDL
MODEL 2
REMARK VINA RESULT:    21.138      1.911      3.098
REMARK INTER + INTRA:          23.356
REMARK INTER:                  23.408
REMARK INTRA:                  -0.052
REMARK UNBOUND:                 0.364
REMARK  2 active torsions:
REMARK  status: ('A' for Active; 'I' for Inactive)
REMARK    1  A    between atoms: O_1  and  C_3 
REMARK    2  A    between atoms: O_2  and  C_4 
ROOT
HETATM    1  O   UNK     0       7.858  45.125   8.676  0.00  0.00    -0.353 OA
HETATM    2  C   UNK     0       7.429  43.879   8.447  0.00  0.00     0.210 C 
ENDROOT
BRANCH   1   3
HETATM    3  C   UNK     0       8.455  45.524   9.723  0.00  0.00     0.101 A 
HETATM    4  C   UNK     0       9.638  46.294   9.643  0.00  0.00     0.099 A 
HETATM    5  C   UNK     0      10.323  46.654  10.822  0.00  0.00     0.039 A 
HETATM    6  C   UNK     0       9.820  46.266  12.078  0.00  0.00     0.003 A 
HETATM    7  C   UNK     0       8.619  45.539  12.162  0.00  0.00     0.003 A 
HETATM    8  C   UNK     0       7.935  45.175  10.988  0.00  0.00     0.039 A 
BRANCH   4   9
HETATM    9  O   UNK     0      10.088  46.657   8.525  0.00  0.00    -0.358 OA
HETATM   10  H   UNK     0      10.065  46.117   7.829  0.00  0.00     0.217 HD
ENDBRANCH   4   9
ENDBRANCH   1   3
TORSDOF 2
ENDMDL
MODEL 3
REMARK VINA RESULT:    21.270      1.285      3.122
REMARK INTER + INTRA:          23.500
REMARK INTER:                  23.552
REMARK INTRA:                  -0.052
REMARK UNBOUND:                 0.364
REMARK  2 active torsions:
REMARK  status: ('A' for Active; 'I' for Inactive)
REMARK    1  A    between atoms: O_1  and  C_3 
REMARK    2  A    between atoms: O_2  and  C_4 
ROOT
HETATM    1  O   UNK     0       9.976  46.200  10.013  0.00  0.00    -0.353 OA
HETATM    2  C   UNK     0       9.491  46.380   8.779  0.00  0.00     0.210 C 
ENDROOT
BRANCH   1   3
HETATM    3  C   UNK     0       9.288  45.967  11.053  0.00  0.00     0.101 A 
HETATM    4  C   UNK     0       9.429  46.757  12.218  0.00  0.00     0.099 A 
HETATM    5  C   UNK     0       8.710  46.423  13.384  0.00  0.00     0.039 A 
HETATM    6  C   UNK     0       7.836  45.321  13.386  0.00  0.00     0.003 A 
HETATM    7  C   UNK     0       7.659  44.561  12.215  0.00  0.00     0.003 A 
HETATM    8  C   UNK     0       8.377  44.888  11.051  0.00  0.00     0.039 A 
BRANCH   4   9
HETATM    9  O   UNK     0      10.199  47.753  12.223  0.00  0.00    -0.358 OA
HETATM   10  H   UNK     0      10.131  48.383  11.610  0.00  0.00     0.217 HD
ENDBRANCH   4   9
ENDBRANCH   1   3
TORSDOF 2
ENDMDL
MODEL 4
REMARK VINA RESULT:    22.120      1.743      2.410
REMARK INTER + INTRA:          24.424
REMARK INTER:                  24.476
REMARK INTRA:                  -0.052
REMARK UNBOUND:                 0.364
REMARK  2 active torsions:
REMARK  status: ('A' for Active; 'I' for Inactive)
REMARK    1  A    between atoms: O_1  and  C_3 
REMARK    2  A    between atoms: O_2  and  C_4 
ROOT
HETATM    1  O   UNK     0       6.954  44.561  12.935  0.00  0.00    -0.353 OA
HETATM    2  C   UNK     0       6.983  43.301  13.384  0.00  0.00     0.210 C 
ENDROOT
BRANCH   1   3
HETATM    3  C   UNK     0       7.911  45.166  12.362  0.00  0.00     0.101 A 
HETATM    4  C   UNK     0       8.617  46.203  13.014  0.00  0.00     0.099 A 
HETATM    5  C   UNK     0       9.622  46.911  12.322  0.00  0.00     0.039 A 
HETATM    6  C   UNK     0       9.938  46.574  10.993  0.00  0.00     0.003 A 
HETATM    7  C   UNK     0       9.268  45.512  10.358  0.00  0.00     0.003 A 
HETATM    8  C   UNK     0       8.263  44.806  11.043  0.00  0.00     0.039 A 
BRANCH   4   9
HETATM    9  O   UNK     0       8.351  46.503  14.207  0.00  0.00    -0.358 OA
HETATM   10  H   UNK     0       7.680  47.039  14.402  0.00  0.00     0.217 HD
ENDBRANCH   4   9
ENDBRANCH   1   3
TORSDOF 2
ENDMDL
