REMARK  2 active torsions:
REMARK  status: ('A' for Active; 'I' for Inactive)
REMARK    1  A    between atoms: O_1  and  C_3 
REMARK    2  A    between atoms: O_2  and  C_4 
ROOT
HETATM    1  O   UNK     0      -1.066  -1.438  -0.181  0.00  0.00    -0.353 OA
HETATM    2  C   UNK     0      -1.398  -2.028   0.973  0.00  0.00     0.210 C 
ENDROOT
BRANCH   1   3
HETATM    3  C   UNK     0      -0.418  -0.354  -0.300  0.00  0.00     0.101 A 
HETATM    4  C   UNK     0       0.995  -0.347  -0.354  0.00  0.00     0.099 A 
HETATM    5  C   UNK     0       1.690   0.879  -0.405  0.00  0.00     0.039 A 
HETATM    6  C   UNK     0       0.981   2.094  -0.424  0.00  0.00     0.003 A 
HETATM    7  C   UNK     0      -0.426   2.088  -0.416  0.00  0.00     0.003 A 
HETATM    8  C   UNK     0      -1.123   0.868  -0.362  0.00  0.00     0.039 A 
BRANCH   4   9
HETATM    9  O   UNK     0       1.638  -1.429  -0.351  0.00  0.00    -0.358 OA
HETATM   10  H   UNK     0       2.518  -1.435  -0.395  0.00  0.00     0.217 HD
ENDBRANCH   4   9
ENDBRANCH   1   3
TORSDOF 2
