MODEL 1
REMARK VINA RESULT:    -4.859      0.000      0.000
REMARK INTER + INTRA:          -5.684
REMARK INTER:                  -5.576
REMARK INTRA:                  -0.108
REMARK UNBOUND:                -0.115
REMARK  3 active torsions:
REMARK  status: ('A' for Active; 'I' for Inactive)
REMARK    1  A    between atoms: O_1  and  C_4 
REMARK    2  A    between atoms: O_2  and  C_5 
REMARK    3  A    between atoms: O_3  and  C_6 
ROOT
HETATM    1  O   UNK     0       8.621  40.177  -1.310  0.00  0.00    -0.353 OA
HETATM    2  C   UNK     0       8.728  39.471  -2.442  0.00  0.00     0.210 C 
ENDROOT
BRANCH   1   3
HETATM    3  C   UNK     0       9.593  40.543  -0.580  0.00  0.00     0.104 A 
HETATM    4  C   UNK     0       9.421  40.805   0.800  0.00  0.00     0.132 A 
HETATM    5  C   UNK     0      10.482  41.369   1.545  0.00  0.00     0.104 A 
HETATM    6  C   UNK     0      11.742  41.552   0.940  0.00  0.00     0.040 A 
HETATM    7  C   UNK     0      11.933  41.226  -0.415  0.00  0.00     0.006 A 
HETATM    8  C   UNK     0      10.857  40.732  -1.175  0.00  0.00     0.040 A 
BRANCH   4   9
HETATM    9  O   UNK     0       8.330  40.550   1.373  0.00  0.00    -0.356 OA
HETATM   10  H   UNK     0       7.990  39.737   1.370  0.00  0.00     0.218 HD
ENDBRANCH   4   9
BRANCH   5  11
HETATM   11  O   UNK     0      10.319  41.747   2.746  0.00  0.00    -0.353 OA
HETATM   12  C   UNK     0      11.297  42.150   3.566  0.00  0.00     0.210 C 
ENDBRANCH   5  11
ENDBRANCH   1   3
TORSDOF 3
ENDMDL
MODEL 2
REMARK VINA RESULT:    -4.837      0.951      3.919
REMARK INTER + INTRA:          -5.659
REMARK INTER:                  -5.554
REMARK INTRA:                  -0.105
REMARK UNBOUND:                -0.115
REMARK  3 active torsions:
REMARK  status: ('A' for Active; 'I' for Inactive)
REMARK    1  A    between atoms: O_1  and  C_4 
REMARK    2  A    between atoms: O_2  and  C_5 
REMARK    3  A    between atoms: O_3  and  C_6 
ROOT
HETATM    1  O   UNK     0      11.203  42.760   2.577  0.00  0.00    -0.353 OA
HETATM    2  C   UNK     0      11.340  42.136   3.753  0.00  0.00     0.210 C 
ENDROOT
BRANCH   1   3
HETATM    3  C   UNK     0      11.120  42.185   1.449  0.00  0.00     0.104 A 
HETATM    4  C   UNK     0       9.866  41.903   0.855  0.00  0.00     0.132 A 
HETATM    5  C   UNK     0       9.806  41.117  -0.318  0.00  0.00     0.104 A 
HETATM    6  C   UNK     0      10.999  40.723  -0.958  0.00  0.00     0.040 A 
HETATM    7  C   UNK     0      12.247  41.064  -0.406  0.00  0.00     0.006 A 
HETATM    8  C   UNK     0      12.306  41.785   0.800  0.00  0.00     0.040 A 
BRANCH   4   9
HETATM    9  O   UNK     0       8.800  42.337   1.365  0.00  0.00    -0.356 OA
HETATM   10  H   UNK     0       8.033  41.920   1.245  0.00  0.00     0.218 HD
ENDBRANCH   4   9
BRANCH   5  11
HETATM   11  O   UNK     0       8.697  40.726  -0.796  0.00  0.00    -0.353 OA
HETATM   12  C   UNK     0       8.556  39.942  -1.871  0.00  0.00     0.210 C 
ENDBRANCH   5  11
ENDBRANCH   1   3
TORSDOF 3
ENDMDL
MODEL 3
REMARK VINA RESULT:    -4.770      3.640      4.681
REMARK INTER + INTRA:          -5.582
REMARK INTER:                  -5.466
REMARK INTRA:                  -0.117
REMARK UNBOUND:                -0.115
REMARK  3 active torsions:
REMARK  status: ('A' for Active; 'I' for Inactive)
REMARK    1  A    between atoms: O_1  and  C_4 
REMARK    2  A    between atoms: O_2  and  C_5 
REMARK    3  A    between atoms: O_3  and  C_6 
ROOT
HETATM    1  O   UNK     0       9.643  46.550   0.400  0.00  0.00    -0.353 OA
HETATM    2  C   UNK     0       9.114  47.013  -0.739  0.00  0.00     0.210 C 
ENDROOT
BRANCH   1   3
HETATM    3  C   UNK     0       9.640  45.335   0.769  0.00  0.00     0.104 A 
HETATM    4  C   UNK     0      10.724  44.780   1.489  0.00  0.00     0.132 A 
HETATM    5  C   UNK     0      10.764  43.389   1.738  0.00  0.00     0.104 A 
HETATM    6  C   UNK     0       9.665  42.583   1.376  0.00  0.00     0.040 A 
HETATM    7  C   UNK     0       8.555  43.147   0.723  0.00  0.00     0.006 A 
HETATM    8  C   UNK     0       8.548  44.518   0.412  0.00  0.00     0.040 A 
BRANCH   4   9
HETATM    9  O   UNK     0      11.662  45.510   1.905  0.00  0.00    -0.356 OA
HETATM   10  H   UNK     0      11.823  45.603   2.766  0.00  0.00     0.218 HD
ENDBRANCH   4   9
BRANCH   5  11
HETATM   11  O   UNK     0      11.784  42.839   2.253  0.00  0.00    -0.353 OA
HETATM   12  C   UNK     0      12.693  42.120   1.583  0.00  0.00     0.210 C 
ENDBRANCH   5  11
ENDBRANCH   1   3
TORSDOF 3
ENDMDL
MODEL 4
REMARK VINA RESULT:    -4.751      1.794      4.461
REMARK INTER + INTRA:          -5.560
REMARK INTER:                  -5.450
REMARK INTRA:                  -0.110
REMARK UNBOUND:                -0.115
REMARK  3 active torsions:
REMARK  status: ('A' for Active; 'I' for Inactive)
REMARK    1  A    between atoms: O_1  and  C_4 
REMARK    2  A    between atoms: O_2  and  C_5 
REMARK    3  A    between atoms: O_3  and  C_6 
ROOT
HETATM    1  O   UNK     0      10.569  41.474   1.778  0.00  0.00    -0.353 OA
HETATM    2  C   UNK     0      10.085  41.267   3.008  0.00  0.00     0.210 C 
ENDROOT
BRANCH   1   3
HETATM    3  C   UNK     0      10.072  41.009   0.707  0.00  0.00     0.104 A 
HETATM    4  C   UNK     0      10.851  40.865  -0.466  0.00  0.00     0.132 A 
HETATM    5  C   UNK     0      10.228  40.503  -1.682  0.00  0.00     0.104 A 
HETATM    6  C   UNK     0       8.859  40.166  -1.693  0.00  0.00     0.040 A 
HETATM    7  C   UNK     0       8.100  40.240  -0.512  0.00  0.00     0.006 A 
HETATM    8  C   UNK     0       8.704  40.670   0.683  0.00  0.00     0.040 A 
BRANCH   4   9
HETATM    9  O   UNK     0      12.094  41.067  -0.443  0.00  0.00    -0.356 OA
HETATM   10  H   UNK     0      12.583  40.994  -1.172  0.00  0.00     0.218 HD
ENDBRANCH   4   9
BRANCH   5  11
HETATM   11  O   UNK     0      10.868  40.503  -2.778  0.00  0.00    -0.353 OA
HETATM   12  C   UNK     0      10.588  39.730  -3.834  0.00  0.00     0.210 C 
ENDBRANCH   5  11
ENDBRANCH   1   3
TORSDOF 3
ENDMDL
MODEL 5
REMARK VINA RESULT:    -4.716      2.013      2.978
REMARK INTER + INTRA:          -5.520
REMARK INTER:                  -5.394
REMARK INTRA:                  -0.126
REMARK UNBOUND:                -0.115
REMARK  3 active torsions:
REMARK  status: ('A' for Active; 'I' for Inactive)
REMARK    1  A    between atoms: O_1  and  C_4 
REMARK    2  A    between atoms: O_2  and  C_5 
REMARK    3  A    between atoms: O_3  and  C_6 
ROOT
HETATM    1  O   UNK     0      12.289  40.454  -0.984  0.00  0.00    -0.353 OA
HETATM    2  C   UNK     0      13.083  40.902  -1.964  0.00  0.00     0.210 C 
ENDROOT
BRANCH   1   3
HETATM    3  C   UNK     0      11.785  41.169  -0.064  0.00  0.00     0.104 A 
HETATM    4  C   UNK     0      10.393  41.416  -0.001  0.00  0.00     0.132 A 
HETATM    5  C   UNK     0       9.888  42.348   0.934  0.00  0.00     0.104 A 
HETATM    6  C   UNK     0      10.756  42.933   1.878  0.00  0.00     0.040 A 
HETATM    7  C   UNK     0      12.129  42.633   1.861  0.00  0.00     0.006 A 
HETATM    8  C   UNK     0      12.644  41.760   0.885  0.00  0.00     0.040 A 
BRANCH   4   9
HETATM    9  O   UNK     0       9.598  40.822  -0.775  0.00  0.00    -0.356 OA
HETATM   10  H   UNK     0       8.727  40.849  -0.645  0.00  0.00     0.218 HD
ENDBRANCH   4   9
BRANCH   5  11
HETATM   11  O   UNK     0       8.668  42.699   0.924  0.00  0.00    -0.353 OA
HETATM   12  C   UNK     0       8.226  43.941   0.692  0.00  0.00     0.210 C 
ENDBRANCH   5  11
ENDBRANCH   1   3
TORSDOF 3
ENDMDL
MODEL 6
REMARK VINA RESULT:    -4.698      1.451      1.586
REMARK INTER + INTRA:          -5.500
REMARK INTER:                  -5.380
REMARK INTRA:                  -0.119
REMARK UNBOUND:                -0.115
REMARK  3 active torsions:
REMARK  status: ('A' for Active; 'I' for Inactive)
REMARK    1  A    between atoms: O_1  and  C_4 
REMARK    2  A    between atoms: O_2  and  C_5 
REMARK    3  A    between atoms: O_3  and  C_6 
ROOT
HETATM    1  O   UNK     0       8.820  40.007   0.288  0.00  0.00    -0.353 OA
HETATM    2  C   UNK     0       8.285  39.816  -0.923  0.00  0.00     0.210 C 
ENDROOT
BRANCH   1   3
HETATM    3  C   UNK     0       9.913  40.610   0.519  0.00  0.00     0.104 A 
HETATM    4  C   UNK     0       9.997  41.643   1.483  0.00  0.00     0.132 A 
HETATM    5  C   UNK     0      11.183  42.403   1.596  0.00  0.00     0.104 A 
HETATM    6  C   UNK     0      12.316  42.050   0.835  0.00  0.00     0.040 A 
HETATM    7  C   UNK     0      12.255  40.978  -0.072  0.00  0.00     0.006 A 
HETATM    8  C   UNK     0      11.053  40.267  -0.237  0.00  0.00     0.040 A 
BRANCH   4   9
HETATM    9  O   UNK     0       9.022  41.899   2.238  0.00  0.00    -0.356 OA
HETATM   10  H   UNK     0       8.331  42.365   1.951  0.00  0.00     0.218 HD
ENDBRANCH   4   9
BRANCH   5  11
HETATM   11  O   UNK     0      11.244  43.424   2.348  0.00  0.00    -0.353 OA
HETATM   12  C   UNK     0      11.188  44.694   1.928  0.00  0.00     0.210 C 
ENDBRANCH   5  11
ENDBRANCH   1   3
TORSDOF 3
ENDMDL
MODEL 7
REMARK VINA RESULT:    -4.681      1.347      4.098
REMARK INTER + INTRA:          -5.480
REMARK INTER:                  -5.370
REMARK INTRA:                  -0.110
REMARK UNBOUND:                -0.115
REMARK  3 active torsions:
REMARK  status: ('A' for Active; 'I' for Inactive)
REMARK    1  A    between atoms: O_1  and  C_4 
REMARK    2  A    between atoms: O_2  and  C_5 
REMARK    3  A    between atoms: O_3  and  C_6 
ROOT
HETATM    1  O   UNK     0       9.706  40.668   1.394  0.00  0.00    -0.353 OA
HETATM    2  C   UNK     0      10.008  41.399   2.473  0.00  0.00     0.210 C 
ENDROOT
BRANCH   1   3
HETATM    3  C   UNK     0      10.303  40.730   0.275  0.00  0.00     0.104 A 
HETATM    4  C   UNK     0       9.618  40.495  -0.940  0.00  0.00     0.132 A 
HETATM    5  C   UNK     0      10.344  40.407  -2.150  0.00  0.00     0.104 A 
HETATM    6  C   UNK     0      11.728  40.676  -2.156  0.00  0.00     0.040 A 
HETATM    7  C   UNK     0      12.397  40.980  -0.957  0.00  0.00     0.006 A 
HETATM    8  C   UNK     0      11.687  40.996   0.257  0.00  0.00     0.040 A 
BRANCH   4   9
HETATM    9  O   UNK     0       8.367  40.353  -0.958  0.00  0.00    -0.356 OA
HETATM   10  H   UNK     0       7.827  41.031  -0.796  0.00  0.00     0.218 HD
ENDBRANCH   4   9
BRANCH   5  11
HETATM   11  O   UNK     0       9.784  40.059  -3.234  0.00  0.00    -0.353 OA
HETATM   12  C   UNK     0      10.417  39.558  -4.302  0.00  0.00     0.210 C 
ENDBRANCH   5  11
ENDBRANCH   1   3
TORSDOF 3
ENDMDL
MODEL 8
REMARK VINA RESULT:    -4.640      1.984      3.137
REMARK INTER + INTRA:          -5.433
REMARK INTER:                  -5.319
REMARK INTRA:                  -0.114
REMARK UNBOUND:                -0.115
REMARK  3 active torsions:
REMARK  status: ('A' for Active; 'I' for Inactive)
REMARK    1  A    between atoms: O_1  and  C_4 
REMARK    2  A    between atoms: O_2  and  C_5 
REMARK    3  A    between atoms: O_3  and  C_6 
ROOT
HETATM    1  O   UNK     0      11.980  40.732  -2.833  0.00  0.00    -0.353 OA
HETATM    2  C   UNK     0      12.055  41.192  -4.087  0.00  0.00     0.210 C 
ENDROOT
BRANCH   1   3
HETATM    3  C   UNK     0      10.907  40.557  -2.179  0.00  0.00     0.104 A 
HETATM    4  C   UNK     0      10.834  40.831  -0.793  0.00  0.00     0.132 A 
HETATM    5  C   UNK     0       9.678  40.468  -0.065  0.00  0.00     0.104 A 
HETATM    6  C   UNK     0       8.557  39.949  -0.745  0.00  0.00     0.040 A 
HETATM    7  C   UNK     0       8.604  39.742  -2.135  0.00  0.00     0.006 A 
HETATM    8  C   UNK     0       9.780  40.036  -2.848  0.00  0.00     0.040 A 
BRANCH   4   9
HETATM    9  O   UNK     0      11.792  41.387  -0.195  0.00  0.00    -0.356 OA
HETATM   10  H   UNK     0      12.604  41.045  -0.214  0.00  0.00     0.218 HD
ENDBRANCH   4   9
BRANCH   5  11
HETATM   11  O   UNK     0       9.634  40.569   1.199  0.00  0.00    -0.353 OA
HETATM   12  C   UNK     0       8.901  41.460   1.876  0.00  0.00     0.210 C 
ENDBRANCH   5  11
ENDBRANCH   1   3
TORSDOF 3
ENDMDL
MODEL 9
REMARK VINA RESULT:    -4.543      2.099      3.478
REMARK INTER + INTRA:          -5.322
REMARK INTER:                  -5.205
REMARK INTRA:                  -0.117
REMARK UNBOUND:                -0.115
REMARK  3 active torsions:
REMARK  status: ('A' for Active; 'I' for Inactive)
REMARK    1  A    between atoms: O_1  and  C_4 
REMARK    2  A    between atoms: O_2  and  C_5 
REMARK    3  A    between atoms: O_3  and  C_6 
ROOT
HETATM    1  O   UNK     0      12.071  40.560  -3.787  0.00  0.00    -0.353 OA
HETATM    2  C   UNK     0      12.389  41.620  -4.540  0.00  0.00     0.210 C 
ENDROOT
BRANCH   1   3
HETATM    3  C   UNK     0      11.681  40.609  -2.581  0.00  0.00     0.104 A 
HETATM    4  C   UNK     0      10.306  40.558  -2.248  0.00  0.00     0.132 A 
HETATM    5  C   UNK     0       9.899  40.782  -0.913  0.00  0.00     0.104 A 
HETATM    6  C   UNK     0      10.869  40.933   0.099  0.00  0.00     0.040 A 
HETATM    7  C   UNK     0      12.238  40.912  -0.222  0.00  0.00     0.006 A 
HETATM    8  C   UNK     0      12.642  40.761  -1.560  0.00  0.00     0.040 A 
BRANCH   4   9
HETATM    9  O   UNK     0       9.438  40.324  -3.129  0.00  0.00    -0.356 OA
HETATM   10  H   UNK     0       8.908  40.961  -3.430  0.00  0.00     0.218 HD
ENDBRANCH   4   9
BRANCH   5  11
HETATM   11  O   UNK     0       8.672  40.885  -0.604  0.00  0.00    -0.353 OA
HETATM   12  C   UNK     0       8.034  40.112   0.283  0.00  0.00     0.210 C 
ENDBRANCH   5  11
ENDBRANCH   1   3
TORSDOF 3
ENDMDL
MODEL 10
REMARK VINA RESULT:    -4.529      1.897      2.792
REMARK INTER + INTRA:          -5.305
REMARK INTER:                  -5.196
REMARK INTRA:                  -0.110
REMARK UNBOUND:                -0.115
REMARK  3 active torsions:
REMARK  status: ('A' for Active; 'I' for Inactive)
REMARK    1  A    between atoms: O_1  and  C_4 
REMARK    2  A    between atoms: O_2  and  C_5 
REMARK    3  A    between atoms: O_3  and  C_6 
ROOT
HETATM    1  O   UNK     0      10.972  40.104  -3.259  0.00  0.00    -0.353 OA
HETATM    2  C   UNK     0      10.465  39.901  -4.481  0.00  0.00     0.210 C 
ENDROOT
BRANCH   1   3
HETATM    3  C   UNK     0      10.292  40.286  -2.203  0.00  0.00     0.104 A 
HETATM    4  C   UNK     0      10.893  40.752  -1.010  0.00  0.00     0.132 A 
HETATM    5  C   UNK     0      10.142  40.785   0.188  0.00  0.00     0.104 A 
HETATM    6  C   UNK     0       8.768  40.472   0.160  0.00  0.00     0.040 A 
HETATM    7  C   UNK     0       8.153  40.077  -1.041  0.00  0.00     0.006 A 
HETATM    8  C   UNK     0       8.917  39.975  -2.218  0.00  0.00     0.040 A 
BRANCH   4   9
HETATM    9  O   UNK     0      12.094  41.130  -0.998  0.00  0.00    -0.356 OA
HETATM   10  H   UNK     0      12.712  40.677  -0.562  0.00  0.00     0.218 HD
ENDBRANCH   4   9
BRANCH   5  11
HETATM   11  O   UNK     0      10.686  41.060   1.301  0.00  0.00    -0.353 OA
HETATM   12  C   UNK     0      10.086  41.698   2.313  0.00  0.00     0.210 C 
ENDBRANCH   5  11
ENDBRANCH   1   3
TORSDOF 3
ENDMDL
MODEL 11
REMARK VINA RESULT:    -4.523      1.579      3.796
REMARK INTER + INTRA:          -5.298
REMARK INTER:                  -5.223
REMARK INTRA:                  -0.076
REMARK UNBOUND:                -0.115
REMARK  3 active torsions:
REMARK  status: ('A' for Active; 'I' for Inactive)
REMARK    1  A    between atoms: O_1  and  C_4 
REMARK    2  A    between atoms: O_2  and  C_5 
REMARK    3  A    between atoms: O_3  and  C_6 
ROOT
HETATM    1  O   UNK     0      11.216  43.548   2.262  0.00  0.00    -0.353 OA
HETATM    2  C   UNK     0      11.182  44.834   1.892  0.00  0.00     0.210 C 
ENDROOT
BRANCH   1   3
HETATM    3  C   UNK     0      11.080  42.557   1.480  0.00  0.00     0.104 A 
HETATM    4  C   UNK     0       9.824  41.932   1.294  0.00  0.00     0.132 A 
HETATM    5  C   UNK     0       9.741  40.733   0.550  0.00  0.00     0.104 A 
HETATM    6  C   UNK     0      10.886  40.235  -0.105  0.00  0.00     0.040 A 
HETATM    7  C   UNK     0      12.120  40.896   0.022  0.00  0.00     0.006 A 
HETATM    8  C   UNK     0      12.218  42.049   0.822  0.00  0.00     0.040 A 
BRANCH   4   9
HETATM    9  O   UNK     0       8.779  42.426   1.791  0.00  0.00    -0.356 OA
HETATM   10  H   UNK     0       8.816  42.996   2.462  0.00  0.00     0.218 HD
ENDBRANCH   4   9
BRANCH   5  11
HETATM   11  O   UNK     0       8.660  40.071   0.481  0.00  0.00    -0.353 OA
HETATM   12  C   UNK     0       8.324  39.246  -0.518  0.00  0.00     0.210 C 
ENDBRANCH   5  11
ENDBRANCH   1   3
TORSDOF 3
ENDMDL
MODEL 12
REMARK VINA RESULT:    -4.517      2.209      4.170
REMARK INTER + INTRA:          -5.292
REMARK INTER:                  -5.169
REMARK INTRA:                  -0.123
REMARK UNBOUND:                -0.115
REMARK  3 active torsions:
REMARK  status: ('A' for Active; 'I' for Inactive)
REMARK    1  A    between atoms: O_1  and  C_4 
REMARK    2  A    between atoms: O_2  and  C_5 
REMARK    3  A    between atoms: O_3  and  C_6 
ROOT
HETATM    1  O   UNK     0       8.797  40.561  -0.730  0.00  0.00    -0.353 OA
HETATM    2  C   UNK     0       8.297  39.575   0.022  0.00  0.00     0.210 C 
ENDROOT
BRANCH   1   3
HETATM    3  C   UNK     0      10.022  40.703  -1.034  0.00  0.00     0.104 A 
HETATM    4  C   UNK     0      10.467  40.592  -2.372  0.00  0.00     0.132 A 
HETATM    5  C   UNK     0      11.853  40.589  -2.653  0.00  0.00     0.104 A 
HETATM    6  C   UNK     0      12.778  40.821  -1.614  0.00  0.00     0.040 A 
HETATM    7  C   UNK     0      12.330  41.003  -0.293  0.00  0.00     0.006 A 
HETATM    8  C   UNK     0      10.956  40.933  -0.003  0.00  0.00     0.040 A 
BRANCH   4   9
HETATM    9  O   UNK     0       9.644  40.485  -3.319  0.00  0.00    -0.356 OA
HETATM   10  H   UNK     0       9.631  41.065  -3.982  0.00  0.00     0.218 HD
ENDBRANCH   4   9
BRANCH   5  11
HETATM   11  O   UNK     0      12.291  40.349  -3.820  0.00  0.00    -0.353 OA
HETATM   12  C   UNK     0      12.884  41.244  -4.619  0.00  0.00     0.210 C 
ENDBRANCH   5  11
ENDBRANCH   1   3
TORSDOF 3
ENDMDL
MODEL 13
REMARK VINA RESULT:    -4.480      2.021      3.578
REMARK INTER + INTRA:          -5.249
REMARK INTER:                  -5.132
REMARK INTRA:                  -0.117
REMARK UNBOUND:                -0.115
REMARK  3 active torsions:
REMARK  status: ('A' for Active; 'I' for Inactive)
REMARK    1  A    between atoms: O_1  and  C_4 
REMARK    2  A    between atoms: O_2  and  C_5 
REMARK    3  A    between atoms: O_3  and  C_6 
ROOT
HETATM    1  O   UNK     0       8.699  42.730   1.083  0.00  0.00    -0.353 OA
HETATM    2  C   UNK     0       8.142  43.919   0.824  0.00  0.00     0.210 C 
ENDROOT
BRANCH   1   3
HETATM    3  C   UNK     0       9.932  42.456   0.954  0.00  0.00     0.104 A 
HETATM    4  C   UNK     0      10.395  41.618  -0.088  0.00  0.00     0.132 A 
HETATM    5  C   UNK     0      11.745  41.199  -0.104  0.00  0.00     0.104 A 
HETATM    6  C   UNK     0      12.650  41.716   0.846  0.00  0.00     0.040 A 
HETATM    7  C   UNK     0      12.203  42.606   1.839  0.00  0.00     0.006 A 
HETATM    8  C   UNK     0      10.845  42.966   1.899  0.00  0.00     0.040 A 
BRANCH   4   9
HETATM    9  O   UNK     0       9.617  41.231  -0.999  0.00  0.00    -0.356 OA
HETATM   10  H   UNK     0       9.863  41.236  -1.845  0.00  0.00     0.218 HD
ENDBRANCH   4   9
BRANCH   5  11
HETATM   11  O   UNK     0      12.160  40.337  -0.938  0.00  0.00    -0.353 OA
HETATM   12  C   UNK     0      12.987  40.591  -1.960  0.00  0.00     0.210 C 
ENDBRANCH   5  11
ENDBRANCH   1   3
TORSDOF 3
ENDMDL
MODEL 14
REMARK VINA RESULT:    -4.429      2.446      4.052
REMARK INTER + INTRA:          -5.191
REMARK INTER:                  -5.075
REMARK INTRA:                  -0.116
REMARK UNBOUND:                -0.115
REMARK  3 active torsions:
REMARK  status: ('A' for Active; 'I' for Inactive)
REMARK    1  A    between atoms: O_1  and  C_4 
REMARK    2  A    between atoms: O_2  and  C_5 
REMARK    3  A    between atoms: O_3  and  C_6 
ROOT
HETATM    1  O   UNK     0       8.856  40.643  -0.747  0.00  0.00    -0.353 OA
HETATM    2  C   UNK     0       8.273  39.731   0.040  0.00  0.00     0.210 C 
ENDROOT
BRANCH   1   3
HETATM    3  C   UNK     0       9.745  40.398  -1.619  0.00  0.00     0.104 A 
HETATM    4  C   UNK     0      11.105  40.721  -1.395  0.00  0.00     0.132 A 
HETATM    5  C   UNK     0      12.040  40.589  -2.448  0.00  0.00     0.104 A 
HETATM    6  C   UNK     0      11.637  40.021  -3.674  0.00  0.00     0.040 A 
HETATM    7  C   UNK     0      10.300  39.634  -3.871  0.00  0.00     0.006 A 
HETATM    8  C   UNK     0       9.354  39.832  -2.849  0.00  0.00     0.040 A 
BRANCH   4   9
HETATM    9  O   UNK     0      11.493  41.134  -0.271  0.00  0.00    -0.356 OA
HETATM   10  H   UNK     0      11.120  41.835   0.112  0.00  0.00     0.218 HD
ENDBRANCH   4   9
BRANCH   5  11
HETATM   11  O   UNK     0      13.234  41.001  -2.327  0.00  0.00    -0.353 OA
HETATM   12  C   UNK     0      13.826  41.891  -3.133  0.00  0.00     0.210 C 
ENDBRANCH   5  11
ENDBRANCH   1   3
TORSDOF 3
ENDMDL
MODEL 15
REMARK VINA RESULT:    -4.189      1.724      2.441
REMARK INTER + INTRA:          -4.916
REMARK INTER:                  -4.804
REMARK INTRA:                  -0.112
REMARK UNBOUND:                -0.115
REMARK  3 active torsions:
REMARK  status: ('A' for Active; 'I' for Inactive)
REMARK    1  A    between atoms: O_1  and  C_4 
REMARK    2  A    between atoms: O_2  and  C_5 
REMARK    3  A    between atoms: O_3  and  C_6 
ROOT
HETATM    1  O   UNK     0       8.623  40.188  -2.228  0.00  0.00    -0.353 OA
HETATM    2  C   UNK     0       8.458  38.907  -2.577  0.00  0.00     0.210 C 
ENDROOT
BRANCH   1   3
HETATM    3  C   UNK     0       9.020  40.593  -1.092  0.00  0.00     0.104 A 
HETATM    4  C   UNK     0      10.378  40.916  -0.859  0.00  0.00     0.132 A 
HETATM    5  C   UNK     0      10.815  41.202   0.455  0.00  0.00     0.104 A 
HETATM    6  C   UNK     0       9.876  41.286   1.503  0.00  0.00     0.040 A 
HETATM    7  C   UNK     0       8.514  41.034   1.257  0.00  0.00     0.006 A 
HETATM    8  C   UNK     0       8.090  40.679  -0.036  0.00  0.00     0.040 A 
BRANCH   4   9
HETATM    9  O   UNK     0      11.206  40.943  -1.806  0.00  0.00    -0.356 OA
HETATM   10  H   UNK     0      11.407  41.696  -2.218  0.00  0.00     0.218 HD
ENDBRANCH   4   9
BRANCH   5  11
HETATM   11  O   UNK     0      12.046  41.356   0.723  0.00  0.00    -0.353 OA
HETATM   12  C   UNK     0      12.543  42.269   1.567  0.00  0.00     0.210 C 
ENDBRANCH   5  11
ENDBRANCH   1   3
TORSDOF 3
ENDMDL
MODEL 16
REMARK VINA RESULT:    -4.047      4.110      5.238
REMARK INTER + INTRA:          -4.753
REMARK INTER:                  -4.637
REMARK INTRA:                  -0.117
REMARK UNBOUND:                -0.115
REMARK  3 active torsions:
REMARK  status: ('A' for Active; 'I' for Inactive)
REMARK    1  A    between atoms: O_1  and  C_4 
REMARK    2  A    between atoms: O_2  and  C_5 
REMARK    3  A    between atoms: O_3  and  C_6 
ROOT
HETATM    1  O   UNK     0      12.320  42.868  -5.476  0.00  0.00    -0.353 OA
HETATM    2  C   UNK     0      11.708  44.056  -5.529  0.00  0.00     0.210 C 
ENDROOT
BRANCH   1   3
HETATM    3  C   UNK     0      13.003  42.438  -4.496  0.00  0.00     0.104 A 
HETATM    4  C   UNK     0      12.464  41.513  -3.571  0.00  0.00     0.132 A 
HETATM    5  C   UNK     0      13.189  41.184  -2.403  0.00  0.00     0.104 A 
HETATM    6  C   UNK     0      14.496  41.684  -2.227  0.00  0.00     0.040 A 
HETATM    7  C   UNK     0      15.059  42.548  -3.182  0.00  0.00     0.006 A 
HETATM    8  C   UNK     0      14.310  42.932  -4.309  0.00  0.00     0.040 A 
BRANCH   4   9
HETATM    9  O   UNK     0      11.339  40.983  -3.771  0.00  0.00    -0.356 OA
HETATM   10  H   UNK     0      10.820  40.743  -3.100  0.00  0.00     0.218 HD
ENDBRANCH   4   9
BRANCH   5  11
HETATM   11  O   UNK     0      12.678  40.471  -1.486  0.00  0.00    -0.353 OA
HETATM   12  C   UNK     0      12.155  40.940  -0.347  0.00  0.00     0.210 C 
ENDBRANCH   5  11
ENDBRANCH   1   3
TORSDOF 3
ENDMDL
MODEL 17
REMARK VINA RESULT:    -3.998      4.834      5.583
REMARK INTER + INTRA:          -4.697
REMARK INTER:                  -4.581
REMARK INTRA:                  -0.116
REMARK UNBOUND:                -0.115
REMARK  3 active torsions:
REMARK  status: ('A' for Active; 'I' for Inactive)
REMARK    1  A    between atoms: O_1  and  C_4 
REMARK    2  A    between atoms: O_2  and  C_5 
REMARK    3  A    between atoms: O_3  and  C_6 
ROOT
HETATM    1  O   UNK     0      11.324  40.700  -3.813  0.00  0.00    -0.353 OA
HETATM    2  C   UNK     0      10.786  39.986  -4.809  0.00  0.00     0.210 C 
ENDROOT
BRANCH   1   3
HETATM    3  C   UNK     0      12.374  41.407  -3.903  0.00  0.00     0.104 A 
HETATM    4  C   UNK     0      13.415  41.305  -2.950  0.00  0.00     0.132 A 
HETATM    5  C   UNK     0      14.491  42.222  -2.984  0.00  0.00     0.104 A 
HETATM    6  C   UNK     0      14.583  43.153  -4.039  0.00  0.00     0.040 A 
HETATM    7  C   UNK     0      13.583  43.207  -5.027  0.00  0.00     0.006 A 
HETATM    8  C   UNK     0      12.476  42.343  -4.952  0.00  0.00     0.040 A 
BRANCH   4   9
HETATM    9  O   UNK     0      13.392  40.411  -2.064  0.00  0.00    -0.356 OA
HETATM   10  H   UNK     0      13.079  39.605  -2.234  0.00  0.00     0.218 HD
ENDBRANCH   4   9
BRANCH   5  11
HETATM   11  O   UNK     0      15.365  42.250  -2.065  0.00  0.00    -0.353 OA
HETATM   12  C   UNK     0      16.658  42.549  -2.241  0.00  0.00     0.210 C 
ENDBRANCH   5  11
ENDBRANCH   1   3
TORSDOF 3
ENDMDL
MODEL 18
REMARK VINA RESULT:    -3.985      4.778      6.528
REMARK INTER + INTRA:          -4.682
REMARK INTER:                  -4.570
REMARK INTRA:                  -0.112
REMARK UNBOUND:                -0.115
REMARK  3 active torsions:
REMARK  status: ('A' for Active; 'I' for Inactive)
REMARK    1  A    between atoms: O_1  and  C_4 
REMARK    2  A    between atoms: O_2  and  C_5 
REMARK    3  A    between atoms: O_3  and  C_6 
ROOT
HETATM    1  O   UNK     0      15.534  41.999  -2.205  0.00  0.00    -0.353 OA
HETATM    2  C   UNK     0      16.518  42.883  -1.998  0.00  0.00     0.210 C 
ENDROOT
BRANCH   1   3
HETATM    3  C   UNK     0      14.545  42.173  -2.981  0.00  0.00     0.104 A 
HETATM    4  C   UNK     0      13.379  41.378  -2.879  0.00  0.00     0.132 A 
HETATM    5  C   UNK     0      12.368  41.485  -3.862  0.00  0.00     0.104 A 
HETATM    6  C   UNK     0      12.470  42.468  -4.866  0.00  0.00     0.040 A 
HETATM    7  C   UNK     0      13.597  43.308  -4.926  0.00  0.00     0.006 A 
HETATM    8  C   UNK     0      14.636  43.153  -3.991  0.00  0.00     0.040 A 
BRANCH   4   9
HETATM    9  O   UNK     0      13.233  40.567  -1.927  0.00  0.00    -0.356 OA
HETATM   10  H   UNK     0      12.865  40.815  -1.167  0.00  0.00     0.218 HD
ENDBRANCH   4   9
BRANCH   5  11
HETATM   11  O   UNK     0      11.378  40.690  -3.881  0.00  0.00    -0.353 OA
HETATM   12  C   UNK     0      10.878  40.110  -4.979  0.00  0.00     0.210 C 
ENDBRANCH   5  11
ENDBRANCH   1   3
TORSDOF 3
ENDMDL
MODEL 19
REMARK VINA RESULT:    -3.982      2.156      3.629
REMARK INTER + INTRA:          -4.679
REMARK INTER:                  -4.663
REMARK INTRA:                  -0.015
REMARK UNBOUND:                -0.115
REMARK  3 active torsions:
REMARK  status: ('A' for Active; 'I' for Inactive)
REMARK    1  A    between atoms: O_1  and  C_4 
REMARK    2  A    between atoms: O_2  and  C_5 
REMARK    3  A    between atoms: O_3  and  C_6 
ROOT
HETATM    1  O   UNK     0       8.552  43.489   1.180  0.00  0.00    -0.353 OA
HETATM    2  C   UNK     0       8.575  44.612   0.453  0.00  0.00     0.210 C 
ENDROOT
BRANCH   1   3
HETATM    3  C   UNK     0       8.969  42.355   0.791  0.00  0.00     0.104 A 
HETATM    4  C   UNK     0      10.349  42.042   0.776  0.00  0.00     0.132 A 
HETATM    5  C   UNK     0      10.789  40.837   0.182  0.00  0.00     0.104 A 
HETATM    6  C   UNK     0       9.844  39.899  -0.281  0.00  0.00     0.040 A 
HETATM    7  C   UNK     0       8.468  40.179  -0.201  0.00  0.00     0.006 A 
HETATM    8  C   UNK     0       8.033  41.410   0.324  0.00  0.00     0.040 A 
BRANCH   4   9
HETATM    9  O   UNK     0      11.193  42.829   1.278  0.00  0.00    -0.356 OA
HETATM   10  H   UNK     0      11.591  42.647   2.043  0.00  0.00     0.218 HD
ENDBRANCH   4   9
BRANCH   5  11
HETATM   11  O   UNK     0      12.024  40.591   0.025  0.00  0.00    -0.353 OA
HETATM   12  C   UNK     0      12.695  40.721  -1.126  0.00  0.00     0.210 C 
ENDBRANCH   5  11
ENDBRANCH   1   3
TORSDOF 3
ENDMDL
MODEL 20
REMARK VINA RESULT:    -3.895      3.719      5.512
REMARK INTER + INTRA:          -4.580
REMARK INTER:                  -4.465
REMARK INTRA:                  -0.115
REMARK UNBOUND:                -0.115
REMARK  3 active torsions:
REMARK  status: ('A' for Active; 'I' for Inactive)
REMARK    1  A    between atoms: O_1  and  C_4 
REMARK    2  A    between atoms: O_2  and  C_5 
REMARK    3  A    between atoms: O_3  and  C_6 
ROOT
HETATM    1  O   UNK     0      13.762  41.108  -5.312  0.00  0.00    -0.353 OA
HETATM    2  C   UNK     0      14.911  40.501  -5.632  0.00  0.00     0.210 C 
ENDROOT
BRANCH   1   3
HETATM    3  C   UNK     0      13.092  40.898  -4.254  0.00  0.00     0.104 A 
HETATM    4  C   UNK     0      11.811  40.300  -4.299  0.00  0.00     0.132 A 
HETATM    5  C   UNK     0      11.025  40.234  -3.126  0.00  0.00     0.104 A 
HETATM    6  C   UNK     0      11.570  40.652  -1.895  0.00  0.00     0.040 A 
HETATM    7  C   UNK     0      12.871  41.181  -1.838  0.00  0.00     0.006 A 
HETATM    8  C   UNK     0      13.626  41.314  -3.017  0.00  0.00     0.040 A 
BRANCH   4   9
HETATM    9  O   UNK     0      11.356  39.832  -5.376  0.00  0.00    -0.356 OA
HETATM   10  H   UNK     0      11.847  39.804  -6.107  0.00  0.00     0.218 HD
ENDBRANCH   4   9
BRANCH   5  11
HETATM   11  O   UNK     0       9.821  39.835  -3.158  0.00  0.00    -0.353 OA
HETATM   12  C   UNK     0       8.960  39.899  -2.135  0.00  0.00     0.210 C 
ENDBRANCH   5  11
ENDBRANCH   1   3
TORSDOF 3
ENDMDL
