REMARK  3 active torsions:
REMARK  status: ('A' for Active; 'I' for Inactive)
REMARK    1  A    between atoms: O_1  and  C_4 
REMARK    2  A    between atoms: O_2  and  C_5 
REMARK    3  A    between atoms: O_3  and  C_6 
ROOT
HETATM    1  O   UNK     0      -1.771  -1.541  -0.422  0.00  0.00    -0.353 OA
HETATM    2  C   UNK     0      -2.035  -2.144   0.743  0.00  0.00     0.210 C 
ENDROOT
BRANCH   1   3
HETATM    3  C   UNK     0      -1.105  -0.469  -0.558  0.00  0.00     0.104 A 
HETATM    4  C   UNK     0       0.310  -0.477  -0.573  0.00  0.00     0.132 A 
HETATM    5  C   UNK     0       1.019   0.746  -0.558  0.00  0.00     0.104 A 
HETATM    6  C   UNK     0       0.315   1.964  -0.653  0.00  0.00     0.040 A 
HETATM    7  C   UNK     0      -1.090   1.969  -0.710  0.00  0.00     0.006 A 
HETATM    8  C   UNK     0      -1.798   0.755  -0.652  0.00  0.00     0.040 A 
BRANCH   4   9
HETATM    9  O   UNK     0       0.948  -1.562  -0.590  0.00  0.00    -0.356 OA
HETATM   10  H   UNK     0       0.532  -2.337  -0.643  0.00  0.00     0.218 HD
ENDBRANCH   4   9
BRANCH   5  11
HETATM   11  O   UNK     0       2.281   0.777  -0.428  0.00  0.00    -0.353 OA
HETATM   12  C   UNK     0       2.937   0.715   0.737  0.00  0.00     0.210 C 
ENDBRANCH   5  11
ENDBRANCH   1   3
TORSDOF 3
